/*--------------------------------*- C++ -*----------------------------------*\
| =========                 |                                                 |
| \\      /  F ield         | OpenFOAM: The Open Source CFD Toolbox           |
|  \\    /   O peration     | Version:  v2312                                 |
|   \\  /    A nd           | Website:  www.openfoam.com                      |
|    \\/     M anipulation  |                                                 |
\*---------------------------------------------------------------------------*/
FoamFile
{
    version     2.0;
    format      ascii;
    class       volScalarField;
    object      k;
}
// * * * * * * * * * * * * * * * * * * * * * * * * * * * * * * * * * * * * * //

dimensions      [0 2 -2 0 0 0 0];

internalField   uniform 0.375;

boundaryField
{
    inlet
    {
        type            fixedValue;
        value           uniform 0.375;
    }

    outlet
    {
        type            zeroGradient;
    }

    top
    {
        type            kqRWallFunction;
        value           uniform 0.375;
    }

    bottom
    {
        type            kqRWallFunction;
        value           uniform 0.375;
    }

    side1
    {
        type            kqRWallFunction;
        value           uniform 0.375;
    }
    side2
    {
        type            kqRWallFunction;
        value           uniform 0.375;
    }
    solid
    {
        type            kqRWallFunction;
        value           uniform 0.375;
    }
}


// ************************************************************************* //
